Version 4
SHEET 1 932 1240
WIRE -720 -320 -800 -320
WIRE -400 -320 -528 -320
WIRE -112 -288 -240 -288
WIRE -240 -240 -240 -288
WIRE -208 -240 -240 -240
WIRE -752 -224 -992 -224
WIRE -720 -224 -752 -224
WIRE -400 -224 -400 -240
WIRE -256 -224 -400 -224
WIRE -112 -224 -112 -288
WIRE -112 -224 -144 -224
WIRE 112 -224 -112 -224
WIRE -992 -208 -992 -224
WIRE -400 -208 -400 -224
WIRE -256 -208 -256 -224
WIRE -208 -208 -256 -208
WIRE -752 -128 -752 -224
WIRE -400 -128 -752 -128
WIRE -240 -128 -400 -128
WIRE -800 -64 -800 -320
WIRE -720 -64 -800 -64
WIRE -400 -64 -528 -64
WIRE -240 -32 -240 -128
WIRE -112 -32 -240 -32
WIRE -240 16 -240 -32
WIRE -208 16 -240 16
WIRE -752 32 -992 32
WIRE -720 32 -752 32
WIRE -400 32 -400 16
WIRE -256 32 -400 32
WIRE -112 32 -112 -32
WIRE -112 32 -144 32
WIRE 112 32 -112 32
WIRE -992 48 -992 32
WIRE -400 48 -400 32
WIRE -256 48 -256 32
WIRE -208 48 -256 48
WIRE -752 128 -752 32
WIRE -400 128 -752 128
WIRE -240 128 -400 128
WIRE -800 192 -800 -64
WIRE -720 192 -800 192
WIRE -400 192 -528 192
WIRE -240 224 -240 128
WIRE -112 224 -240 224
WIRE -240 272 -240 224
WIRE -208 272 -240 272
WIRE -752 288 -992 288
WIRE -720 288 -752 288
WIRE -400 288 -400 272
WIRE -256 288 -400 288
WIRE -112 288 -112 224
WIRE -112 288 -144 288
WIRE 112 288 -112 288
WIRE -992 304 -992 288
WIRE -400 304 -400 288
WIRE -256 304 -256 288
WIRE -208 304 -256 304
WIRE -752 384 -752 288
WIRE -400 384 -752 384
WIRE -240 384 -400 384
WIRE -800 448 -800 192
WIRE -800 448 -816 448
WIRE -720 448 -800 448
WIRE -704 448 -720 448
WIRE -400 448 -528 448
WIRE -240 480 -240 384
WIRE -112 480 -240 480
WIRE -240 528 -240 480
WIRE -208 528 -240 528
WIRE -752 544 -992 544
WIRE -720 544 -752 544
WIRE -400 544 -400 528
WIRE -256 544 -400 544
WIRE -112 544 -112 480
WIRE -112 544 -144 544
WIRE 112 544 -112 544
WIRE -992 560 -992 544
WIRE -400 560 -400 544
WIRE -256 560 -256 544
WIRE -208 560 -256 560
WIRE -752 640 -752 544
WIRE -400 640 -752 640
WIRE -240 640 -400 640
WIRE -800 704 -800 448
WIRE -720 704 -800 704
WIRE -400 704 -528 704
WIRE -240 736 -240 640
WIRE -112 736 -240 736
WIRE -240 784 -240 736
WIRE -208 784 -240 784
WIRE -752 800 -992 800
WIRE -720 800 -752 800
WIRE -400 800 -400 784
WIRE -256 800 -400 800
WIRE -112 800 -112 736
WIRE -112 800 -144 800
WIRE 112 800 -112 800
WIRE -992 816 -992 800
WIRE -400 816 -400 800
WIRE -256 816 -256 800
WIRE -208 816 -256 816
WIRE -752 896 -752 800
WIRE -400 896 -752 896
WIRE -240 896 -400 896
WIRE -800 960 -800 704
WIRE -800 960 -960 960
WIRE -720 960 -800 960
WIRE -400 960 -528 960
WIRE -240 992 -240 896
WIRE -112 992 -240 992
WIRE -960 1040 -960 960
WIRE -240 1040 -240 992
WIRE -208 1040 -240 1040
WIRE -720 1056 -768 1056
WIRE -400 1056 -400 1040
WIRE -256 1056 -400 1056
WIRE -112 1056 -112 992
WIRE -112 1056 -144 1056
WIRE 112 1056 -112 1056
WIRE -400 1072 -400 1056
WIRE -256 1072 -256 1056
WIRE -208 1072 -256 1072
WIRE -960 1136 -960 1120
WIRE -768 1152 -768 1056
FLAG -768 1152 0
FLAG -400 1152 0
FLAG -960 1136 0
FLAG -992 896 0
FLAG -992 640 0
FLAG -992 384 0
FLAG -992 128 0
FLAG -992 -128 0
SYMBOL Opamps\\opamp -176 -288 R0
SYMATTR InstName U1
SYMBOL res -416 -336 R0
SYMATTR InstName R1
SYMATTR Value 1k
SYMBOL res -416 -224 R0
SYMATTR InstName R2
SYMATTR Value 4k7
SYMBOL Opamps\\opamp -176 -32 R0
SYMATTR InstName U2
SYMBOL res -416 -80 R0
SYMATTR InstName R3
SYMATTR Value 1k
SYMBOL res -416 32 R0
SYMATTR InstName R4
SYMATTR Value 4k7
SYMBOL Opamps\\opamp -176 224 R0
SYMATTR InstName U3
SYMBOL res -416 176 R0
SYMATTR InstName R5
SYMATTR Value 1k
SYMBOL res -416 288 R0
SYMATTR InstName R6
SYMATTR Value 4k7
SYMBOL Opamps\\opamp -176 480 R0
SYMATTR InstName U4
SYMBOL res -416 432 R0
SYMATTR InstName R7
SYMATTR Value 1k
SYMBOL res -416 544 R0
SYMATTR InstName R8
SYMATTR Value 4k7
SYMBOL Opamps\\opamp -176 736 R0
SYMATTR InstName U5
SYMBOL res -416 688 R0
SYMATTR InstName R9
SYMATTR Value 1k
SYMBOL res -416 800 R0
SYMATTR InstName R10
SYMATTR Value 4k7
SYMBOL Opamps\\opamp -176 992 R0
SYMATTR InstName U6
SYMBOL res -416 944 R0
SYMATTR InstName R11
SYMATTR Value 1k
SYMBOL res -416 1056 R0
SYMATTR InstName R12
SYMATTR Value 4k7
SYMBOL References\\LT1021-5 -624 1008 R0
SYMATTR InstName U7
SYMBOL References\\LT1021-5 -624 752 R0
SYMATTR InstName U8
SYMBOL References\\LT1021-5 -624 496 R0
SYMATTR InstName U9
SYMBOL References\\LT1021-5 -624 240 R0
SYMATTR InstName U10
SYMBOL References\\LT1021-5 -624 -16 R0
SYMATTR InstName U11
SYMBOL References\\LT1021-5 -624 -272 R0
SYMATTR InstName U12
SYMBOL voltage -960 1024 R0
WINDOW 123 0 0 Left 0
WINDOW 39 0 0 Left 0
SYMATTR InstName V1
SYMATTR Value 30
SYMBOL res -1008 -224 R0
SYMATTR InstName R13
SYMATTR Value 15k
SYMBOL res -1008 32 R0
SYMATTR InstName R14
SYMATTR Value 15k
SYMBOL res -1008 288 R0
SYMATTR InstName R15
SYMATTR Value 10k
SYMBOL res -1008 544 R0
SYMATTR InstName R16
SYMATTR Value 4k7
SYMBOL res -1008 800 R0
SYMATTR InstName R17
SYMATTR Value 2k2
TEXT 752 648 Left 0 !.lib opamp.sub
TEXT -1136 1224 Left 0 !.tran 1
