Version 4
SHEET 1 880 680
WIRE -16 16 -368 16
WIRE -16 96 -16 16
WIRE 256 96 -16 96
WIRE -368 112 -368 16
WIRE 384 112 320 112
WIRE 256 128 192 128
WIRE -16 144 -16 96
WIRE 384 144 384 112
WIRE 192 240 192 128
WIRE 384 240 384 224
WIRE 384 240 192 240
WIRE -368 272 -368 192
WIRE -16 272 -16 224
WIRE -16 272 -368 272
WIRE 384 272 384 240
WIRE -16 336 -16 272
WIRE 384 384 384 352
FLAG 384 384 0
FLAG -16 336 0
SYMBOL Opamps\\opamp 288 176 M180
SYMATTR InstName U1
SYMBOL res -32 128 R0
SYMATTR InstName R1
SYMATTR Value 0.1
SYMBOL res 368 128 R0
SYMATTR InstName R2
SYMATTR Value 33k
SYMBOL res 368 256 R0
SYMATTR InstName R4
SYMATTR Value 2k2
SYMBOL voltage -368 96 R0
WINDOW 123 0 0 Left 0
WINDOW 39 0 0 Left 0
SYMATTR InstName V1
SYMATTR Value SINE(0.15 0.15 10)
TEXT 552 416 Left 0 !.lib opamp.sub
TEXT 552 480 Left 0 !.tran 1
