Version 4
SHEET 1 880 680
WIRE -48 -80 -304 -80
WIRE 16 -80 0 -80
WIRE 144 -80 96 -80
WIRE 208 -80 144 -80
WIRE 320 -80 288 -80
WIRE -304 -48 -304 -80
WIRE 0 32 0 -80
WIRE 0 32 -304 32
WIRE -48 80 -48 -80
WIRE 144 128 144 -80
WIRE 176 128 144 128
WIRE 320 144 320 -80
WIRE 320 144 240 144
WIRE -304 160 -304 32
WIRE 176 160 144 160
WIRE -48 176 -48 160
WIRE 144 176 144 160
WIRE 144 176 -48 176
WIRE -48 208 -48 176
WIRE -304 320 -304 240
WIRE -48 320 -48 288
WIRE -48 320 -304 320
WIRE -48 336 -48 320
FLAG -48 336 0
SYMBOL Opamps\\opamp 208 80 R0
SYMATTR InstName U1
SYMBOL res -64 64 R0
SYMATTR InstName R1
SYMATTR Value 10k
SYMBOL res -64 192 R0
SYMATTR InstName R2
SYMATTR Value 10k
SYMBOL res 112 -96 R90
WINDOW 0 0 56 VBottom 0
WINDOW 3 32 56 VTop 0
SYMATTR InstName R3
SYMATTR Value 10k
SYMBOL res 304 -96 R90
WINDOW 0 0 56 VBottom 0
WINDOW 3 32 56 VTop 0
SYMATTR InstName R4
SYMATTR Value 10k
SYMBOL voltage -304 -64 R0
WINDOW 123 0 0 Left 0
WINDOW 39 0 0 Left 0
SYMATTR InstName V1
SYMATTR Value SINE(3.4 0.8 10)
SYMBOL voltage -304 144 R0
WINDOW 123 0 0 Left 0
WINDOW 39 0 0 Left 0
SYMATTR InstName V2
SYMATTR Value SINE(5 4 11)
TEXT 288 328 Left 0 !.lib opamp.sub
TEXT -338 360 Left 0 !.tran 1
